Version 4
SHEET 1 880 680
WIRE 128 0 48 0
WIRE 384 0 208 0
WIRE -48 144 -112 144
WIRE 48 144 48 0
WIRE 48 144 16 144
WIRE 144 144 48 144
WIRE 384 160 384 0
WIRE 384 160 208 160
WIRE 512 160 384 160
WIRE 656 160 592 160
WIRE 144 176 80 176
WIRE 656 208 656 160
WIRE -256 224 -256 128
WIRE 160 256 160 192
WIRE -112 272 -112 144
WIRE -32 272 -112 272
WIRE 80 272 80 176
WIRE 80 272 48 272
WIRE -112 320 -112 272
WIRE 80 320 80 272
WIRE 256 320 80 320
WIRE 384 320 384 160
WIRE 384 320 336 320
WIRE 80 368 80 320
WIRE 80 368 48 368
WIRE -256 384 -256 304
WIRE 656 384 656 288
FLAG -256 128 Vcc
FLAG -256 384 0
FLAG 192 192 Vcc
FLAG 160 128 Vcc
FLAG 160 256 0
FLAG -112 320 0
FLAG -32 368 Vcc
FLAG 656 384 0
FLAG 656 160 out
SYMBOL voltage -256 208 R0
WINDOW 123 0 0 Left 0
WINDOW 39 0 0 Left 0
SYMATTR InstName V1
SYMATTR Value 1.8
SYMBOL res 352 304 R90
WINDOW 0 0 56 VBottom 2
WINDOW 3 32 56 VTop 2
SYMATTR InstName R1
SYMATTR Value 1k
SYMBOL cap 16 128 R90
WINDOW 0 0 32 VBottom 2
WINDOW 3 32 32 VTop 2
SYMATTR InstName C1
SYMATTR Value 0.1µ
SYMBOL res 64 256 R90
WINDOW 0 0 56 VBottom 2
WINDOW 3 32 56 VTop 2
SYMATTR InstName R2
SYMATTR Value 1k
SYMBOL res 64 352 R90
WINDOW 0 0 56 VBottom 2
WINDOW 3 32 56 VTop 2
SYMATTR InstName R3
SYMATTR Value 1k
SYMBOL res 224 -16 R90
WINDOW 0 0 56 VBottom 2
WINDOW 3 32 56 VTop 2
SYMATTR InstName R4
SYMATTR Value 7.15k
SYMBOL res 608 144 R90
WINDOW 0 0 56 VBottom 2
WINDOW 3 32 56 VTop 2
SYMATTR InstName R5
SYMATTR Value 10k
SYMBOL res 672 304 R180
WINDOW 0 36 76 Left 2
WINDOW 3 36 40 Left 2
SYMATTR InstName R6
SYMATTR Value 50
SYMBOL Opamps\\MAX40110 176 176 R0
SYMATTR InstName U1
TEXT -290 430 Left 2 !.tran 20m
